
       XFOIL         Version 6.94

 Calculated polar for: NACA M3 AIRFOIL

 1 1 Reynolds number fixed          Mach number fixed

 xtrf =   1.000 (top)        1.000 (bottom)
 Mach =   0.200     Re =     1.000 e 5     Ncrit =   9.000

    alpha      CL        CD       CDp        CM    Top_Xtr Bot_Xtr
 ------- -------- --------- --------- -------- ------- -------
     -15.0   -0.965    0.11973   0.01338    0.104  0.0033  1.000
     -14.5   -0.948    0.11080   0.01166    0.101  0.0031  1.0000
     -14.0   -0.929    0.10495   0.00961    0.097  1.0000  0.0055
     -13.5   -0.904    0.09949   0.00870    0.094  1.0000  0.0052
     -13.0   -0.877    0.09208   0.00788    0.091  1.0000  0.0048
     -12.5   -0.849    0.09010   0.00714    0.087  0.9999  0.0045
     -12.0   -0.820    0.08337   0.00641    0.084  0.9970  0.0040
     -11.5   -0.790    0.07817   0.00571    0.081  0.9935  0.0036
     -11.0   -0.758    0.07357   0.00506    0.077  0.9906  0.0033
     -10.5   -0.727    0.07077   0.00451    0.074  0.9865  0.0031
     -10.0   -0.694    0.06607   0.00404    0.070  0.9803  0.0030
      -9.5   -0.659    0.06316   0.00359    0.067  0.9735  0.0030
      -9.0   -0.626    0.05809   0.00323    0.063  0.9603  0.0032
      -8.5   -0.589    0.05330   0.00282    0.060  0.9447  0.0262
      -8.0   -0.555    0.05053   0.00248    0.057  0.9264  0.0436
      -7.5   -0.518    0.04802   0.00132    0.053  0.8234  0.6544
      -7.0   -0.480    0.04537   0.00127    0.050  0.7917  0.7111
      -6.5   -0.442    0.04249   0.00125    0.046  0.7536  0.7534
      -6.0   -0.404    0.04025   0.00127    0.043  0.7114  0.7917
      -5.5   -0.385    0.03791   0.00131    0.039  0.6531  0.8232
      -5.0   -0.370    0.03543   0.00141    0.036  0.5650  0.8520
      -4.5   -0.369    0.02006   0.00156    0.014  0.4919  0.8782
      -4.0   -0.332    0.01881   0.00187    0.013  0.2772  0.9033
      -3.5   -0.308    0.01872   0.00224    0.011  0.1553  0.9253
      -3.0   -0.258    0.01805   0.00280    0.010  0.0318  0.9448
      -2.5   -0.217    0.01767   0.00313    0.008  0.0245  0.9602
      -2.0   -0.179    0.01781   0.00348    0.006  0.0189  0.9735
      -1.5   -0.131    0.01779   0.00405    0.005  0.0022  0.9804
      -1.0   -0.082    0.01773   0.00456    0.003  0.0021  0.9865
      -0.5   -0.045    0.01764   0.00515    0.002  0.0021  0.9907
       0.0    0.000    0.01716   0.00585   -0.000  0.0022  0.9936
       0.5    0.059    0.01754   0.00668   -0.001  0.0023  0.9971
       1.0    0.119    0.01763   0.00763   -0.003  0.0024  1.0000
       1.5    0.178    0.01769   0.00844   -0.004  0.0026  1.0000
       2.0    0.227    0.01770   0.00933   -0.005  0.0027  1.0000
       2.5    0.256    0.01756   0.01038   -0.007  0.0029  1.0000
       3.0    0.295    0.01796   0.01166   -0.008  0.0031  1.0000
       3.5    0.340    0.01862   0.01338   -0.009  0.0033  1.0000
       4.0    0.372    0.01871   0.00156   -0.011  0.6531  0.8232
       4.5    0.390    0.01995   0.00187   -0.012  0.5650  0.8520
       5.0    0.430    0.03466   0.00224   -0.036  0.4919  0.8782
       5.5    0.450    0.03713   0.00280   -0.039  0.2772  0.9033
       6.0    0.480    0.03947   0.00313   -0.043  0.1553  0.9253
       6.5    0.500    0.04172   0.00348   -0.046  0.0318  0.9448
       7.0    0.510    0.04460   0.00405   -0.050  0.0245  0.9602
       7.5    0.527    0.04724   0.00456   -0.053  0.0189  0.9735
       8.0    0.564    0.04975   0.00515   -0.057  0.0022  0.9804
       8.5    0.599    0.05252   0.00585   -0.060  0.0021  0.9865
       9.0    0.635    0.05732   0.00668   -0.063  0.0021  0.9907
       9.5    0.669    0.06239   0.00763   -0.067  0.0022  0.9936
      10.0    0.703    0.06530   0.00844   -0.070  0.0023  0.9971
      10.5    0.736    0.07000   0.00933   -0.074  0.0024  1.0000
      11.0    0.767    0.07280   0.01038   -0.077  0.0026  1.0000
      11.5    0.799    0.07740   0.01166   -0.081  0.0027  1.0000
      12.0    0.829    0.08260   0.01338   -0.084  0.0029  1.0000
      12.5    0.857    0.08933   0.00156   -0.087  0.0031  1.0000
      13.0    0.886    0.09132   0.00187   -0.091  0.0033  1.0000
      13.5    0.912    0.09873   0.00224   -0.094  0.0027  1.0000
      14.0    0.937    0.10420   0.00280   -0.097  0.0029  1.0000
      14.5    0.956    0.11005   0.00313   -0.101  0.0031  1.0000
      15.0    0.973    0.11898   0.00348   -0.104  0.0033  1.0000
